*version 9.1 1968108432
u 186
U? 6
DSTM? 10
? 14
@libraries
@analysis
.TRAN 1 0 0 0
+0 1s
+1 10s
@targets
@attributes
@translators
a 0 u 13 0 0 0 hln 100 PCBOARDS=PCB
a 0 u 13 0 0 0 hln 100 PSPICE=PSPICE
a 0 u 13 0 0 0 hln 100 XILINX=XILINX
@setup
unconnectedPins 0
connectViaLabel 0
connectViaLocalLabels 0
NoStim4ExtIFPortsWarnings 1
AutoGenStim4ExtIFPorts 1
@index
pageloc 1 0 7182 
@status
n 0 124:00:29:11:25:30;1706507730 e 
s 2832 124:03:28:18:25:44;1714308944 e 
*page 1 0 970 720 iA
@ports
port 140 LO 420 290 h
@parts
part 5 7486 100 330 h
a 0 sp 11 0 40 50 hln 100 PART=7486
a 0 s 0:13 0 0 0 hln 100 PKGTYPE=DIP14
a 0 s 0:13 0 0 0 hln 100 GATE=A
a 0 a 0:13 0 0 0 hln 100 PKGREF=U4
a 0 ap 9 0 40 0 hln 100 REFDES=U4A
part 6 7486 90 390 h
a 0 sp 11 0 40 50 hln 100 PART=7486
a 0 s 0:13 0 0 0 hln 100 PKGTYPE=DIP14
a 0 s 0:13 0 0 0 hln 100 GATE=A
a 0 a 0:13 0 0 0 hln 100 PKGREF=U5
a 0 ap 9 0 40 0 hln 100 REFDES=U5A
part 4 7486 100 270 h
a 0 sp 11 0 40 50 hln 100 PART=7486
a 0 s 0:13 0 0 0 hln 100 PKGTYPE=DIP14
a 0 s 0:13 0 0 0 hln 100 GATE=A
a 0 a 0:13 0 0 0 hln 100 PKGREF=U3
a 0 ap 9 0 40 0 hln 100 REFDES=U3A
part 3 7486 100 210 h
a 0 sp 11 0 40 50 hln 100 PART=7486
a 0 s 0:13 0 0 0 hln 100 PKGTYPE=DIP14
a 0 s 0:13 0 0 0 hln 100 GATE=A
a 0 a 0:13 0 0 0 hln 100 PKGREF=U2
a 0 ap 9 0 40 0 hln 100 REFDES=U2A
part 7 STIM1 140 50 h
a 0 a 0:13 0 0 0 hln 100 PKGREF=DSTM1
a 0 ap 9 0 1 -2 hln 100 REFDES=DSTM1
a 0 u 0 0 0 90 hln 100 COMMAND2=1s 0
part 8 STIM1 140 80 h
a 0 a 0:13 0 0 0 hln 100 PKGREF=DSTM2
a 0 ap 9 0 1 -2 hln 100 REFDES=DSTM2
a 0 u 0 0 0 90 hln 100 COMMAND2=1s 1
part 9 STIM1 140 100 h
a 0 a 0:13 0 0 0 hln 100 PKGREF=DSTM3
a 0 ap 9 0 1 -2 hln 100 REFDES=DSTM3
a 0 u 0 0 0 90 hln 100 COMMAND2=1s 0
part 10 STIM1 140 130 h
a 0 a 0:13 0 0 0 hln 100 PKGREF=DSTM4
a 0 ap 9 0 1 -2 hln 100 REFDES=DSTM4
a 0 u 0 0 0 70 hln 100 TIMESTEP=1s 1
part 11 STIM1 70 180 h
a 0 a 0:13 0 0 0 hln 100 PKGREF=DSTM5
a 0 ap 9 0 1 -2 hln 100 REFDES=DSTM5
a 0 u 0 0 0 90 hln 100 COMMAND2=1s 0
part 12 STIM1 60 250 h
a 0 a 0:13 0 0 0 hln 100 PKGREF=DSTM6
a 0 ap 9 0 1 -2 hln 100 REFDES=DSTM6
a 0 u 0 0 0 90 hln 100 COMMAND2=1s 1
part 13 STIM1 60 310 h
a 0 a 0:13 0 0 0 hln 100 PKGREF=DSTM7
a 0 ap 9 0 1 -2 hln 100 REFDES=DSTM7
a 0 u 0 0 0 90 hln 100 COMMAND2=1s 1
part 14 STIM1 60 370 h
a 0 a 0:13 0 0 0 hln 100 PKGREF=DSTM8
a 0 ap 9 0 1 -2 hln 100 REFDES=DSTM8
a 0 u 0 0 0 90 hln 100 COMMAND2=1s 1
part 109 STIM1 70 480 h
a 0 a 0:13 0 0 0 hln 100 PKGREF=DSTM9
a 0 ap 9 0 1 -2 hln 100 REFDES=DSTM9
a 0 u 0 0 0 90 hln 100 COMMAND2=1s 0
part 2 7483A 740 110 h
a 0 sp 11 0 40 110 hln 100 PART=7483A
a 0 s 0:13 0 0 0 hln 100 PKGTYPE=DIP16
a 0 s 0:13 0 0 0 hln 100 GATE=
a 0 a 0:13 0 0 0 hln 100 PKGREF=U1
a 0 ap 9 0 40 -2 hln 100 REFDES=U1
part 1 titleblk 970 720 h
a 1 s 13 0 350 10 hcn 100 PAGESIZE=A
a 1 s 13 0 180 60 hcn 100 PAGETITLE=
a 1 s 13 0 300 95 hrn 100 PAGENO=1
a 1 s 13 0 340 95 hrn 100 PAGECOUNT=1
part 167 nodeMarker 800 110 h
a 0 s 0 0 0 0 hln 100 PROBEVAR=
a 0 a 0 0 4 22 hlb 100 LABEL=1
part 168 nodeMarker 800 130 h
a 0 s 0 0 0 0 hln 100 PROBEVAR=
a 0 a 0 0 4 22 hlb 100 LABEL=2
part 169 nodeMarker 800 150 h
a 0 s 0 0 0 0 hln 100 PROBEVAR=
a 0 a 0 0 4 22 hlb 100 LABEL=3
part 170 nodeMarker 800 170 h
a 0 s 0 0 0 0 hln 100 PROBEVAR=
a 0 a 0 0 4 22 hlb 100 LABEL=4
part 171 nodeMarker 800 190 h
a 0 s 0 0 0 0 hln 100 PROBEVAR=
a 0 a 0 0 4 22 hlb 100 LABEL=5
part 172 nodeMarker 210 220 h
a 0 s 0 0 0 0 hln 100 PROBEVAR=
a 0 a 0 0 4 22 hlb 100 LABEL=6
part 174 nodeMarker 220 280 h
a 0 s 0 0 0 0 hln 100 PROBEVAR=
a 0 a 0 0 4 22 hlb 100 LABEL=7
part 176 nodeMarker 220 340 h
a 0 s 0 0 0 0 hln 100 PROBEVAR=
a 0 a 0 0 4 22 hlb 100 LABEL=8
part 178 nodeMarker 220 400 h
a 0 s 0 0 0 0 hln 100 PROBEVAR=
a 0 a 0 0 4 22 hlb 100 LABEL=9
part 180 nodeMarker 210 50 h
a 0 s 0 0 0 0 hln 100 PROBEVAR=
a 0 a 0 0 4 22 hlb 100 LABEL=10
part 182 nodeMarker 210 80 h
a 0 s 0 0 0 0 hln 100 PROBEVAR=
a 0 a 0 0 4 22 hlb 100 LABEL=11
part 184 nodeMarker 210 100 h
a 0 s 0 0 0 0 hln 100 PROBEVAR=
a 0 a 0 0 4 22 hlb 100 LABEL=12
part 185 nodeMarker 190 130 h
a 0 s 0 0 0 0 hln 100 PROBEVAR=
a 0 a 0 0 4 22 hlb 100 LABEL=13
@conn
w 16
a 0 up 0:33 0 0 0 hln 100 LVL=
s 70 180 70 210 15
s 70 210 100 210 17
a 0 up 33 0 85 209 hct 100 LVL=
w 20
a 0 up 0:33 0 0 0 hln 100 LVL=
s 60 250 60 270 19
s 60 270 100 270 21
a 0 up 33 0 80 269 hct 100 LVL=
w 24
a 0 up 0:33 0 0 0 hln 100 LVL=
s 60 310 60 330 23
s 60 330 100 330 25
a 0 up 33 0 80 329 hct 100 LVL=
s 100 330 110 330 27
w 31
a 0 up 0:33 0 0 0 hln 100 LVL=
s 60 370 60 390 30
s 60 390 90 390 32
a 0 up 33 0 75 389 hct 100 LVL=
w 111
a 0 up 0:33 0 0 0 hln 100 LVL=
s 70 480 70 410 110
a 0 up 33 0 72 445 hlt 100 LVL=
s 70 410 80 410 112
s 80 410 90 410 116
s 80 410 80 350 114
s 80 230 100 230 117
s 80 290 80 230 121
s 80 290 100 290 119
s 80 350 80 290 125
s 80 350 100 350 122
s 100 350 110 350 124
w 142
a 0 up 0:33 0 0 0 hln 100 LVL=
s 740 190 740 250 141
s 740 250 420 250 147
a 0 up 33 0 580 249 hct 100 LVL=
s 420 250 420 290 148
w 139
a 0 up 0:33 0 0 0 hln 100 LVL=
s 740 150 300 150 81
a 0 up 33 0 520 149 hct 100 LVL=
s 300 150 300 220 62
s 300 220 210 220 60
s 210 220 170 220 173
w 138
a 0 up 0:33 0 0 0 hln 100 LVL=
s 740 160 310 160 79
a 0 up 33 0 525 159 hct 100 LVL=
s 310 160 310 280 71
s 310 280 220 280 69
s 220 280 170 280 175
w 98
a 0 up 0:33 0 0 0 hln 100 LVL=
s 350 340 220 340 97
s 350 170 350 340 99
s 740 170 350 170 101
a 0 up 33 0 545 169 hct 100 LVL=
s 220 340 170 340 177
w 104
a 0 up 0:33 0 0 0 hln 100 LVL=
s 380 400 220 400 103
s 380 180 380 400 105
s 740 180 380 180 107
a 0 up 33 0 560 179 hct 100 LVL=
s 220 400 160 400 179
w 35
a 0 up 0:33 0 0 0 hln 100 LVL=
s 250 50 210 50 34
s 250 110 250 50 36
s 740 110 250 110 38
a 0 up 33 0 495 109 hct 100 LVL=
s 210 50 140 50 181
w 41
a 0 up 0:33 0 0 0 hln 100 LVL=
s 230 80 210 80 40
s 230 120 230 80 42
s 740 120 230 120 44
a 0 up 33 0 485 119 hct 100 LVL=
s 210 80 140 80 183
w 47
a 0 up 0:33 0 0 0 hln 100 LVL=
s 210 100 140 100 46
s 210 130 210 100 48
s 740 130 210 130 50
a 0 up 33 0 475 129 hct 100 LVL=
w 53
a 0 up 0:33 0 0 0 hln 100 LVL=
s 190 130 140 130 52
s 190 140 190 130 54
s 740 140 190 140 56
a 0 up 33 0 465 139 hct 100 LVL=
@junction
j 100 210
+ p 3 A
+ w 16
j 60 250
+ p 12 pin1
+ w 20
j 100 270
+ p 4 A
+ w 20
j 60 310
+ p 13 pin1
+ w 24
j 100 330
+ p 5 A
+ w 24
j 60 370
+ p 14 pin1
+ w 31
j 90 390
+ p 6 A
+ w 31
j 140 50
+ p 7 pin1
+ w 35
j 140 80
+ p 8 pin1
+ w 41
j 140 100
+ p 9 pin1
+ w 47
j 140 130
+ p 10 pin1
+ w 53
j 90 410
+ p 6 B
+ w 111
j 80 410
+ w 111
+ w 111
j 100 230
+ p 3 B
+ w 111
j 100 290
+ p 4 B
+ w 111
j 80 290
+ w 111
+ w 111
j 100 350
+ p 5 B
+ w 111
j 80 350
+ w 111
+ w 111
j 740 110
+ p 2 A4
+ w 35
j 740 120
+ p 2 A3
+ w 41
j 740 130
+ p 2 A2
+ w 47
j 740 140
+ p 2 A1
+ w 53
j 170 340
+ p 5 Y
+ w 98
j 740 170
+ p 2 B2
+ w 98
j 160 400
+ p 6 Y
+ w 104
j 740 180
+ p 2 B1
+ w 104
j 740 160
+ p 2 B3
+ w 138
j 170 280
+ p 4 Y
+ w 138
j 740 150
+ p 2 B4
+ w 139
j 170 220
+ p 3 Y
+ w 139
j 740 190
+ p 2 C0
+ w 142
j 420 290
+ s 140
+ w 142
j 70 180
+ p 11 pin1
+ w 16
j 70 480
+ p 109 pin1
+ w 111
j 800 110
+ p 167 pin1
+ p 2 C4
j 800 130
+ p 168 pin1
+ p 2 SUM4
j 800 150
+ p 169 pin1
+ p 2 SUM3
j 800 170
+ p 170 pin1
+ p 2 SUM2
j 800 190
+ p 171 pin1
+ p 2 SUM1
j 210 220
+ p 172 pin1
+ w 139
j 220 280
+ p 174 pin1
+ w 138
j 220 340
+ p 176 pin1
+ w 98
j 220 400
+ p 178 pin1
+ w 104
j 210 50
+ p 180 pin1
+ w 35
j 210 80
+ p 182 pin1
+ w 41
j 210 100
+ p 184 pin1
+ w 47
j 190 130
+ p 185 pin1
+ w 53
@attributes
a 0 s 0:13 0 0 0 hln 100 PAGETITLE=
a 0 s 0:13 0 0 0 hln 100 PAGENO=1
a 0 s 0:13 0 0 0 hln 100 PAGESIZE=A
a 0 s 0:13 0 0 0 hln 100 PAGECOUNT=1
@graphics
